5
* unsigned positions (absolute values)
N   2.338609560291812  0.05145987165466145  0.04916894394565211
C   0.9364946090271693  0.0  0.0
C   0.29260272803898346  1.1907102652458752  0.19091365617754857
C   1.1248373631193087  1.2361279561746898  0.28848503660270575
C   1.8711758168725965  0.0  0.0
