40
5324287
O          1.79140        0.92090        1.24040
O          0.70930        3.88940        0.10410
O          4.04010       -0.85870        0.68510
N         -2.90590       -1.19050        0.37710
C         -0.49450        0.49570        0.58410
C         -1.57720        0.77730       -0.46000
C         -2.22870       -0.59830       -0.80760
C          0.53480        1.60780        0.86870
C         -1.17790       -0.04920        1.85670
C          0.46720       -0.51700        0.06360
C         -1.20220       -1.62530       -1.40380
C         -2.04370       -1.28940        1.56560
C          0.17860       -1.54720       -0.81050
C          0.84980        2.53600       -0.33630
C         -1.06240        1.54630       -1.64330
C          1.73790       -0.25440        0.53020
C          0.01120        2.34380       -1.56930
C         -4.16470       -0.51460        0.69240
C          1.23000       -2.40020       -1.14600
C          2.78690       -1.09110        0.22480
C          2.52000       -2.18130       -0.61590
H         -2.34310        1.43170       -0.02210
H         -2.99090       -0.45380       -1.58580
H          0.23600        2.20050        1.74210
H         -1.81020        0.73740        2.28880
H         -0.43950       -0.31020        2.62590
H         -1.10750       -1.41940       -2.47830
H         -1.59070       -2.64720       -1.31050
H         -1.38890       -2.16040        1.43930
H         -2.63920       -1.53050        2.45570
H          1.90050        2.42440       -0.62880
H         -1.62250        1.49870       -2.57270
H          0.30390        2.90230       -2.45500
H         -4.02530        0.50550        1.06330
H         -4.71440       -1.07680        1.45590
H         -4.81700       -0.47660       -0.18710
H          1.06840       -3.22930       -1.82960
H          3.32430       -2.85920       -0.89290
H         -0.22040        4.02640        0.35570
H          4.01990       -0.05730        1.23680
