13
1030
O         -0.47210       -1.35360       -0.15580
O          1.93400        0.00130        0.10760
C         -0.45350       -0.01680        0.34280
C          0.74890        0.70090       -0.25690
C         -1.75730        0.66810       -0.03770
H         -0.34910       -0.07650        1.43170
H          0.70120        0.72110       -1.35070
H          0.82600        1.72750        0.11300
H         -2.61110        0.13080        0.38900
H         -1.78240        1.70130        0.32160
H         -1.89830        0.66910       -1.12410
H         -1.23390       -1.80540        0.24560
H          1.84750       -0.90970       -0.22140
