36
12713
O          1.47260       -0.04520       -0.20370
O          2.73280       -1.56560        0.97910
C         -0.94920        0.12940       -0.23620
C         -2.23010       -0.63680        0.15640
C         -0.95920        1.62270        0.16100
C         -3.50500       -0.06120       -0.46870
C          0.27830       -0.61450        0.31490
C         -4.77150       -0.81810       -0.05940
C         -1.06660        1.89420        1.65520
C         -6.04360       -0.23590       -0.65600
C          2.64050       -0.61860        0.21080
C          3.79930        0.08090       -0.41090
C          3.57620        1.23370       -1.34120
C          5.02560       -0.36500       -0.10140
H         -0.87100        0.11000       -1.33250
H         -2.33420       -0.66120        1.24780
H         -2.13320       -1.68200       -0.16510
H         -0.03950        2.09500       -0.20690
H         -1.77560        2.14040       -0.35440
H         -3.41140       -0.07270       -1.56140
H         -3.62940        0.98480       -0.16870
H          0.29550       -0.58730        1.41030
H          0.23500       -1.66550        0.00240
H         -4.68290       -1.86670       -0.36720
H         -4.86030       -0.81380        1.03360
H         -0.22010        1.47460        2.20550
H         -1.07090        2.97450        1.83540
H         -1.99190        1.48780        2.07310
H         -6.91460       -0.81470       -0.33340
H         -6.18560        0.80120       -0.33640
H         -6.00610       -0.25630       -1.74970
H          2.98580        0.91920       -2.20810
H          3.04500        2.04310       -0.82960
H          4.51930        1.64490       -1.71690
H          5.91020        0.10300       -0.52210
H          5.19300       -1.19920        0.57160
