27

O         -3.32830       -0.90480        0.31490
C         -0.96970       -0.32730        0.31740
C          0.35090       -0.60010       -0.43330
C          1.59660       -0.13500        0.32810
C         -1.21980        1.16410        0.63500
C         -2.13590       -0.96460       -0.45570
C          2.89960       -0.39480       -0.43270
C         -1.33160        2.07460       -0.58010
C          4.13820        0.08800        0.30630
H         -0.90870       -0.83600        1.29000
H          0.44210       -1.67930       -0.61280
H          0.32600       -0.12680       -1.42210
H          1.63690       -0.63870        1.30150
H          1.53410        0.94040        0.52600
H         -0.42930        1.54330        1.29190
H         -2.14620        1.25420        1.21610
H         -1.93250       -2.02020       -0.66670
H         -2.31500       -0.46780       -1.41350
H          2.99850       -1.46950       -0.62640
H          2.85550        0.10170       -1.40940
H         -0.41380        2.06690       -1.17470
H         -1.50390        3.10600       -0.25470
H         -2.16830        1.79090       -1.22410
H          5.03770       -0.12410       -0.27980
H          4.09190        1.16740        0.48200
H          4.23500       -0.41380        1.27420
H         -3.16430       -1.37960        1.14750
