21

O          0.73270       -0.01300       -0.04650
O         -2.67330       -1.32780       -0.12650
O         -3.21730        1.41580       -0.15650
C         -1.63320       -0.37450       -0.35680
C         -0.31810       -0.95300        0.15290
C         -1.99960        0.90800        0.37860
C          1.96780       -0.50040        0.45720
C          3.02290        0.52800        0.21790
C          4.11820        0.31680       -0.52030
H         -1.57700       -0.18810       -1.43530
H         -0.09380       -1.88330       -0.38340
H         -0.40400       -1.20300        1.21820
H         -1.23180        1.68050        0.27560
H         -2.16940        0.71840        1.44330
H          1.88240       -0.67780        1.53550
H          2.21790       -1.44850       -0.03350
H         -3.50260       -0.93710       -0.45130
H         -3.06470        1.61180       -1.09660
H          2.88500        1.50250        0.67900
H          4.85000        1.10570       -0.65500
H          4.30420       -0.63760       -1.00040
