16
135
O          3.45870       -0.02550       -0.00110
O         -2.68450       -1.19360       -0.00100
O         -2.84710        1.07360       -0.00020
C         -0.69160        0.03540        0.00040
C          0.02340        1.23300        0.00020
C         -0.01200       -1.18280        0.00060
C          2.09790       -0.00570        0.00030
C          1.41810        1.21240        0.00000
C          1.38280       -1.20340        0.00050
C         -2.14580        0.05660        0.00020
H         -0.48730        2.19240        0.00000
H         -0.52890       -2.13830        0.00070
H          1.96370        2.15230       -0.00040
H          1.90720       -2.15520        0.00050
H          3.78720        0.89000       -0.00130
H         -3.66520       -1.16830       -0.00170
