23
9862
O          2.74130       -0.58460       -0.99620
C          0.04690       -0.78700       -0.27130
C          1.01090        0.04410        0.57230
C         -1.33970       -0.76360        0.30570
C         -2.35150        0.06460       -0.01540
C          2.42210        0.04600        0.01050
C         -3.69580       -0.08050        0.64650
C         -2.26700        1.18590       -1.01200
C          3.43280        0.87500        0.75990
H          0.04740       -0.43720       -1.30990
H          0.38820       -1.82910       -0.31500
H          1.05680       -0.35130        1.59370
H          0.67010        1.08500        0.61900
H         -1.52010       -1.52510        1.06340
H         -4.46950       -0.26770       -0.10530
H         -3.95230        0.83530        1.18920
H         -3.72180       -0.90880        1.36240
H         -1.26020        1.33130       -1.41150
H         -2.56530        2.12970       -0.54320
H         -2.93770        0.99220       -1.85540
H          3.51940        0.50780        1.78550
H          4.40880        0.79610        0.27290
H          3.12080        1.92220        0.75860
