42

O         -3.75340       -0.80890        0.11340
C          2.86520        0.44290        0.74300
C          1.35960        0.79640        0.72930
C          0.76210        1.04900       -0.66230
C         -0.75260        1.35920       -0.68000
C          3.13530       -0.88480        0.00740
C         -1.58520        0.16790       -0.17390
C          3.72010        1.59070        0.19880
C         -1.07180        2.64860        0.08140
C          4.58440       -1.36250        0.13830
C         -3.08670        0.35160       -0.36730
C          4.79800       -2.68720       -0.57860
C         -5.16200       -0.70100       -0.03850
C         -5.81280       -1.96180        0.48910
H          3.14200        0.30400        1.79710
H          1.21100        1.68400        1.35580
H          0.81920       -0.02110        1.22010
H          1.28870        1.88500       -1.13790
H          0.92970        0.17510       -1.30180
H         -1.01960        1.53000       -1.73200
H          2.46680       -1.65880        0.40500
H          2.90270       -0.77940       -1.05870
H         -1.27400       -0.74920       -0.69080
H         -1.39460       -0.01420        0.89070
H          4.77680        1.44740        0.44500
H          3.63690        1.67600       -0.88940
H          3.41560        2.54570        0.64030
H         -0.38370        3.45090       -0.20590
H         -2.08400        2.99940       -0.14320
H         -0.99820        2.50740        1.16440
H          4.84440       -1.47740        1.19680
H          5.27290       -0.62750       -0.29110
H         -3.44550        1.22120        0.19290
H         -3.31410        0.49300       -1.43020
H          5.83790       -3.01190       -0.47290
H          4.15450       -3.46780       -0.16040
H          4.57760       -2.59550       -1.64700
H         -5.41200       -0.57250       -1.09760
H         -5.53050        0.16580        0.52170
H         -6.90060       -1.91250        0.38720
H         -5.44680       -2.84030       -0.05240
H         -5.56330       -2.11190        1.54470
