43
5745704
O          1.93640        0.09870        1.07190
O          2.02120        3.15040       -0.32590
O          3.29040       -2.45470        0.64820
N         -3.25200       -0.08160        0.50990
C         -0.36940        0.54420        0.50490
C         -1.31610        1.13840       -0.54020
C         -2.46590        0.10120       -0.73980
C          1.02330        1.18740        0.66000
C         -1.13800        0.41440        1.83760
C          0.09680       -0.80190        0.06650
C         -1.94970       -1.28940       -1.25330
C         -2.42980       -0.41050        1.68530
C          1.60420        1.81780       -0.63540
C         -0.61490       -1.70640       -0.69760
C         -0.61150        1.54670       -1.80240
C          1.39450       -1.01710        0.48050
C          0.68900        1.86680       -1.82720
C         -4.13310        1.05420        0.78260
C          0.00580       -2.92560       -0.96920
C          2.02090       -2.21790        0.23730
C          1.30780       -3.18340       -0.48810
C          2.89000        3.16840        0.79450
H         -1.74480        2.07260       -0.15290
H         -3.15560        0.46660       -1.51330
H          0.96290        1.88800        1.49590
H         -1.39380        1.41720        2.20370
H         -0.51580       -0.04950        2.61390
H         -1.84300       -1.22520       -2.34430
H         -2.69640       -2.06810       -1.05360
H         -2.16960       -1.47480        1.63140
H         -3.02150       -0.32710        2.60610
H          2.49900        1.26570       -0.95470
H         -1.19740        1.64480       -2.71170
H          1.12430        2.19280       -2.76860
H         -3.59070        1.96630        1.04980
H         -4.81360        0.81480        1.60770
H         -4.76820        1.27080       -0.08350
H         -0.50080       -3.67950       -1.56570
H          1.77180       -4.14100       -0.71380
H          3.54470        2.29210        0.84510
H          2.34300        3.31540        1.72940
H          3.53730        4.04490        0.68420
H          3.61150       -1.66610        1.11930
