26

C         -1.11330       -0.34520        0.23400
C         -0.87160        1.12560       -0.23590
C          0.09760       -0.68470       -0.70100
C         -0.45400        0.47780       -1.59550
C          0.30130        1.80490        0.49280
C          1.41760       -0.34220       -0.07140
C         -2.43850       -0.93850       -0.22130
C         -0.95730       -0.63510        1.71340
C          1.49090        0.87350        0.50210
C          2.52740       -1.33620       -0.11720
H         -1.75960        1.76430       -0.28220
H          0.08240       -1.67530       -1.16610
H          0.29060        1.03400       -2.17730
H         -1.25900        0.22360       -2.29110
H          0.01910        2.06690        1.51800
H          0.57280        2.73210       -0.02370
H         -3.27160       -0.49860        0.33970
H         -2.45850       -2.02020       -0.04290
H         -2.67040       -0.79680       -1.27930
H         -0.97330       -1.71610        1.89780
H         -1.78700       -0.19660        2.28090
H         -0.04280       -0.26170        2.17710
H          2.40330        1.21060        0.98300
H          2.78480       -1.57060       -1.15490
H          2.22800       -2.26240        0.38340
H          3.42970       -0.96240        0.37770
