14

O          2.84660       -0.38700        0.00020
C          0.56440        0.23710        0.00000
C         -0.34370        1.29600        0.00000
C          0.10130       -1.07870        0.00000
C         -1.71470        1.03930        0.00010
C         -1.26980       -1.33540       -0.00010
C         -2.17770       -0.27640        0.00000
C          1.99370        0.50500       -0.00030
H          0.00160        2.32670        0.00000
H          0.79020       -1.91940       -0.00010
H         -2.42180        1.86370        0.00010
H         -1.63080       -2.35990       -0.00010
H         -3.24520       -0.47640        0.00000
H          2.29860        1.56530       -0.00060
