26
14896
C         -1.11880        0.32590       -0.16760
C         -0.79600       -1.19030        0.01780
C          0.02320        0.55740        0.87280
C         -0.45940       -0.80010        1.49020
C          0.42110       -1.63470       -0.81020
C          1.37120        0.45290        0.22620
C          1.69740       -0.89200       -0.36980
C         -0.78210        0.84840       -1.56100
C         -2.51940        0.80370        0.15460
C          2.16280        1.52880        0.14710
H         -1.64950       -1.86550       -0.10230
H         -0.09590        1.42290        1.53280
H          0.29540       -1.41060        1.99630
H         -1.32040       -0.72460        2.16410
H          0.23750       -1.52570       -1.88460
H          0.58410       -2.70920       -0.65630
H          2.38900       -0.80920       -1.21570
H          2.20590       -1.48910        0.39810
H          0.21270        0.63500       -1.95460
H         -1.49110        0.44900       -2.29730
H         -0.87920        1.94140       -1.58830
H         -2.57480        1.89820        0.15260
H         -3.24480        0.42800       -0.57590
H         -2.86010        0.47140        1.13990
H          1.86760        2.48440        0.56700
H          3.12880        1.47460       -0.34360
