40
5486609
O         -1.99620        0.87400       -1.34780
O          0.38100        1.28340        2.41820
O         -4.10080       -0.92870       -0.45470
N          2.96760       -0.65270       -0.57060
C          0.36270        0.60360       -0.82390
C          1.43050        1.08450        0.17030
C          2.21880       -0.18990        0.62560
C         -0.72980        1.61140       -1.23720
C          1.05900       -0.03010       -2.05020
C         -0.51040       -0.39490       -0.15730
C          0.88410        1.99640        1.29770
C          1.31340       -1.30570        1.26890
C          2.10250       -1.09370       -1.66960
C         -0.10920       -1.33240        0.77490
C         -1.82370       -0.22300       -0.53990
C         -0.91940        2.75790       -0.28080
C         -0.20540        2.92310        0.84100
C          3.99770       -1.64050       -0.26770
C         -1.09030       -2.19730        1.26030
C         -2.80610       -1.07040       -0.07920
C         -2.42600       -2.07480        0.82210
H          2.12160        1.73360       -0.39290
H          2.95780        0.12370        1.37470
H         -0.51620        2.03520       -2.22610
H          1.56560        0.76490       -2.61440
H          0.32880       -0.47970       -2.73560
H          1.72450        2.59890        1.66420
H          1.28280       -1.12220        2.35070
H          1.75380       -2.30060        1.14910
H          1.59960       -2.03660       -1.42230
H          2.71210       -1.29630       -2.55930
H         -1.69100        3.48420       -0.52240
H         -0.43050        3.77450        1.47850
H          4.63820       -1.79750       -1.14300
H          3.58770       -2.61260        0.02300
H          4.65330       -1.28640        0.53540
H         -0.83800       -2.95820        1.99400
H          0.14810        1.92870        3.10770
H         -3.17450       -2.75780        1.21750
H         -4.16040       -0.17770       -1.07060
