14
289
O          1.78580        1.39000        0.00040
O          1.78580       -1.39000       -0.00010
C          0.61280        0.69730       -0.00030
C          0.61270       -0.69740       -0.00010
C         -0.59520        1.39490       -0.00020
C         -0.59530       -1.39480        0.00010
C         -1.80320        0.69740        0.00010
C         -1.80330       -0.69740        0.00010
H         -0.60220        2.48150        0.00000
H         -0.61000       -2.48140        0.00030
H         -2.74380        1.24040        0.00020
H         -2.74400       -1.24030        0.00030
H          2.51870        0.75000        0.00060
H          1.59100       -2.34290        0.00000
