29
7794
O          4.83900        0.42870        0.39410
C          1.43010       -0.20170       -0.33540
C          0.04430       -0.08890        0.33580
C         -1.04580       -0.90320       -0.36800
C          2.42340        0.71910        0.39450
C          1.94060       -1.64750       -0.33860
C         -2.37400       -0.73390        0.31570
C         -3.32280        0.18500        0.05410
C          3.81200        0.72760       -0.20520
C         -4.63460        0.30110        0.77740
C         -3.11220        1.21380       -1.02450
H          1.34920        0.13060       -1.37850
H          0.11880       -0.40910        1.38390
H         -0.25130        0.96830        0.35510
H         -1.10080       -0.64290       -1.43010
H         -0.80530       -1.97200       -0.33780
H          2.51330        0.42620        1.44750
H          2.06300        1.75420        0.37240
H          1.29550       -2.29770       -0.93680
H          2.94170       -1.71740       -0.77600
H          1.98720       -2.05290        0.67780
H         -2.56640       -1.44290        1.11980
H          3.85990        1.05000       -1.26010
H         -4.74140       -0.47240        1.54500
H         -4.71490        1.27520        1.27030
H         -5.46770        0.19310        0.07550
H         -3.30820        2.21540       -0.62520
H         -3.80870        1.03560       -1.85060
H         -2.10200        1.24040       -1.43820
