30
10402
O          2.23790       -1.89310        0.69640
O          3.40480       -0.96620       -1.01660
C          1.36450        1.25700        0.31370
C          0.07030        0.47670        0.61940
C         -1.20320        1.28520        0.35190
C          2.60730        0.46820        0.75920
C          1.46260        1.67290       -1.15700
C         -2.43170        0.48790        0.69230
C          2.79860       -0.84720        0.04040
C         -3.13680       -0.32070       -0.12120
C         -4.33080       -1.07520        0.39910
C         -2.84360       -0.54560       -1.57760
H          1.34880        2.17900        0.91060
H          0.04130       -0.44050        0.01760
H          0.08140        0.16330        1.67180
H         -1.25040        1.62000       -0.68840
H         -1.20080        2.19700        0.96150
H          2.56730        0.27100        1.83780
H          3.51530        1.06400        0.60390
H          2.44080        2.11710       -1.37080
H          0.70870        2.42540       -1.40760
H          1.32290        0.81860       -1.82720
H         -2.74120        0.56650        1.73360
H         -4.52030       -0.87730        1.45940
H         -4.17660       -2.15330        0.28520
H         -5.23010       -0.79150       -0.15730
H         -2.71760       -1.61580       -1.77420
H         -1.93150       -0.04870       -1.91720
H         -3.67290       -0.17770       -2.19050
H          2.37390       -2.73960        0.21990
