42
20833995
O         -1.99010       -1.05320        1.30020
O          2.53220       -2.18610       -1.70040
O         -4.30310        0.33850        0.18160
N          2.58630        1.33820        0.68660
C          0.31270       -0.46550        0.84690
C          1.56050       -0.77550        0.01530
C          2.11340        0.59020       -0.50430
C         -0.63620       -1.62480        1.20510
C          0.74240        0.36770        2.07490
C         -0.66200        0.31840        0.04210
C          1.30320       -1.82870       -1.07270
C         -0.67800       -2.76960        0.17240
C          1.07590        1.35580       -1.39870
C          0.67680       -3.07910       -0.44970
C          1.54460        1.62130        1.67970
C         -0.35780        1.21890       -0.95980
C         -1.95390       -0.01060        0.40190
C          3.34840        2.53750        0.35620
C         -1.43240        1.87460       -1.56030
C         -3.02760        0.63570       -0.16590
C         -2.75530        1.59620       -1.15120
H          2.32960       -1.21040        0.67390
H          2.99640        0.38530       -1.12380
H         -0.38030       -2.04290        2.18630
H          1.36470       -0.25920        2.72770
H         -0.12230        0.67720        2.67600
H          0.64440       -1.43840       -1.85600
H         -1.39110       -2.53830       -0.62980
H         -1.08000       -3.66860        0.65580
H          1.14340        0.93710       -2.41180
H          1.33370        2.41580       -1.48760
H          1.35290       -3.50120        0.30490
H          0.56280       -3.85790       -1.21360
H          0.86090        2.39880        1.31670
H          2.00680        2.02180        2.59080
H          4.14310        2.31020       -0.36270
H          3.84370        2.92890        1.25200
H          2.72530        3.33730       -0.05630
H         -1.26170        2.59270       -2.35790
H          2.33160       -2.85070       -2.38110
H         -3.57210        2.12390       -1.63900
H         -4.90790        0.89610       -0.33740
