36

Cl         5.48970       -0.49770       -2.12070
F          6.00130       -2.68070       -0.18190
O         -2.59830       -1.95970        0.26270
N          1.23910        0.00990        0.70280
N          1.79370        2.29100        0.51710
N          0.10230        3.93160        0.00860
N         -3.14640        2.30000       -0.36940
N         -3.77320        0.02820       -0.19690
C         -0.50370        1.61540        0.18970
C          0.83470        1.34670        0.46320
C         -0.82650        2.95870       -0.03610
C         -1.49210        0.62420        0.13670
C          2.44590       -0.67000        0.47460
C         -2.78670        1.02000       -0.14440
C         -2.15850        3.22530       -0.30820
C          3.27650       -0.29420       -0.58560
C          2.82630       -1.72740        1.30660
C          1.36360        3.54250        0.28350
C          4.47620       -0.96930       -0.81140
C          4.02570       -2.40250        1.08080
C          4.85080       -2.02330        0.02190
C         -3.62090       -1.34230        0.00220
C         -4.84860       -2.10010       -0.12200
C         -5.86590       -2.73000       -0.22450
C         -7.10490       -3.49620       -0.34920
H         -1.19610       -0.39610        0.30430
H          0.61850       -0.48130        1.34060
H         -2.49090        4.24320       -0.49520
H          2.98770        0.51730       -1.25000
H          2.19410       -2.03350        2.13650
H          2.11150        4.32520        0.31930
H          4.31790       -3.22290        1.72960
H         -4.70600        0.37580       -0.40740
H         -6.95940       -4.36960       -0.99190
H         -7.89950       -2.88300       -0.78460
H         -7.44530       -3.84790        0.62940
