11
7362
O         -0.62630        1.13120        0.00010
O          2.60360       -0.35230        0.00010
C          0.28610        0.12430        0.00010
C         -0.34390       -1.09850        0.00000
C         -1.73260       -0.82530        0.00000
C         -1.85220        0.54490       -0.00010
C          1.66520        0.47560       -0.00010
H          0.13310       -2.06840       -0.00010
H         -2.54460       -1.53780        0.00000
H         -2.69390        1.22190       -0.00010
H          1.89890        1.55380       -0.00030
