45
5745677
O         -1.44720       -1.39350       -1.85810
O         -0.08180        2.12970        0.50370
O         -3.75470       -2.20890       -0.27980
O         -0.64950        4.18820       -0.37800
N          3.08170       -0.91360        0.81050
C          0.69790       -0.73670       -0.92220
C          1.49250        0.51250       -0.52320
C          2.10970        0.21050        0.88280
C         -0.22910       -0.62440       -2.14980
C          1.66830       -1.93450       -1.03420
C         -0.34040       -1.00340        0.10590
C          0.69750        1.83770       -0.64830
C          1.04050       -0.13410        1.98600
C          2.51290       -2.14080        0.23390
C         -0.21120       -0.79440        1.46690
C         -1.51080       -1.42630       -0.48670
C         -0.61900        0.78360       -2.51420
C         -0.20820        1.87130       -1.84760
C          4.33160       -0.53900        0.15160
C         -1.30500       -1.13500        2.26250
C         -2.59940       -1.77490        0.28070
C         -2.48390       -1.63730        1.67160
C         -0.70590        3.34730        0.50900
C         -1.48670        3.51600        1.77700
H          2.30490        0.62100       -1.25640
H          2.65020        1.09730        1.23950
H          0.23630       -1.07980       -3.03260
H          2.34250       -1.76730       -1.88460
H          1.12430       -2.86380       -1.24820
H          1.44580        2.63580       -0.75260
H          0.74730        0.80130        2.47930
H          1.48620       -0.75980        2.77010
H          1.89410       -2.62610        0.99860
H          3.30470       -2.87230        0.02670
H         -1.25900        0.91110       -3.38340
H         -0.52630        2.82980       -2.24600
H          4.21940       -0.36240       -0.92240
H          5.07840       -1.33030        0.28330
H          4.75690        0.36190        0.60740
H         -1.26600       -0.99580        3.33950
H         -3.32590       -1.89200        2.31140
H         -3.63840       -2.22680       -1.24570
H         -0.81090        3.47800        2.63510
H         -2.24590        2.73310        1.85020
H         -1.98750        4.48820        1.76890
