15
6560
O          1.95940        0.01170        0.12340
C         -0.45040       -0.00050        0.32540
C          0.78280       -0.67630       -0.28050
C         -0.57840        1.45000       -0.14460
C         -1.71330       -0.78500       -0.02370
H         -0.33710        0.01760        1.41680
H          0.86040       -1.71340        0.06230
H          0.73680       -0.67270       -1.37490
H         -1.46520        1.92180        0.29230
H         -0.66780        1.50730       -1.23470
H          0.29190        2.04230        0.15590
H         -2.59600       -0.32500        0.43290
H         -1.64550       -1.81430        0.34400
H         -1.87240       -0.82170       -1.10680
H          2.71320       -0.45050       -0.28120
