15
811
O         -2.94600        0.37740       -0.37690
O          1.15680        1.65690       -0.33260
O         -1.54450        0.02450        1.38000
O          2.70390        0.21030        0.48420
C         -0.74240       -0.23950       -0.91600
C          0.59350       -0.61500       -0.33820
C         -1.74830        0.05110        0.17550
C          1.60670        0.42200       -0.00940
C          0.92010       -1.88780       -0.06640
H         -0.66170        0.62870       -1.57790
H         -1.13380       -1.07060       -1.51620
H          0.22210       -2.69440       -0.26840
H          1.87660       -2.17000        0.36070
H         -3.61990        0.58110        0.30610
H          1.81420        2.35410       -0.12270
