17
8858
O         -1.43350        1.16960       -0.35850
C          1.23500       -0.12260        0.01170
C          0.03840       -0.69970       -0.19700
C          2.57410       -0.79570       -0.10260
C          1.30890        1.33730        0.37690
C         -1.28030       -0.01620       -0.07900
C         -2.44260       -0.87280        0.34840
H         -0.00570       -1.76070       -0.42820
H          2.46920       -1.84320       -0.40390
H          3.09740       -0.77460        0.85860
H          3.19230       -0.29180       -0.85240
H          0.51350        1.64500        1.06240
H          2.24670        1.55340        0.90220
H          1.28430        1.96020       -0.52290
H         -3.03040       -1.15060       -0.53000
H         -2.09730       -1.77850        0.85510
H         -3.06350       -0.31070        1.05160
