19

O          2.12250        0.86670       -0.31130
O         -0.52760       -2.25380       -0.22990
O          1.88700       -1.24250        0.58020
C         -0.03780        0.07370        0.08240
C         -0.95030       -0.96410       -0.10650
C         -0.49100        1.38720        0.20580
C         -2.31610       -0.68850       -0.17220
C         -1.85680        1.66270        0.14010
C         -2.76940        0.62490       -0.04900
C          1.39230       -0.19180        0.15390
C          3.54700        0.72560       -0.29350
H          0.19260        2.21650        0.36780
H         -3.03850       -1.48700       -0.31900
H         -2.21040        2.68490        0.23930
H         -3.83290        0.83950       -0.09930
H         -1.30040       -2.83110       -0.35410
H          3.85080       -0.11350       -0.92620
H          3.89880        0.58320        0.73260
H          3.98520        1.64440       -0.69190
