12
4093
O          1.16860       -1.28360       -0.00090
O          1.54920        0.95620        0.00060
C         -0.70700        0.10920       -0.00020
C         -1.54430       -1.13240        0.00070
C          0.77480        0.01170        0.00040
C         -1.24130        1.33890       -0.00060
H         -1.33700       -1.73560        0.89070
H         -2.61530       -0.90300        0.00110
H         -1.33780       -1.73620       -0.88910
H         -2.31800        1.47760       -0.00080
H         -0.63670        2.23970       -0.00100
H          2.14580       -1.37040       -0.00110
