14
13543
O         -2.64250        0.07840        0.74070
O          0.41790        1.35260       -0.17910
N         -0.68640       -0.68950       -0.27450
C         -2.01380       -0.16580       -0.50560
C          0.42270        0.12690       -0.13040
C          1.66420       -0.66070        0.09330
C          2.83780       -0.04200        0.25560
H         -1.96430        0.76940       -1.06990
H         -2.59050       -0.90750       -1.06440
H         -0.58820       -1.69790       -0.20090
H          1.60820       -1.74330        0.12360
H         -2.52340       -0.72440        1.27600
H          3.73930       -0.62350        0.41840
H          2.93740        1.03740        0.23240
