43
22833469
O          6.04340        0.42600        0.21370
C         -2.50550        0.02190        0.30610
C         -1.67740       -1.30030        0.15860
C         -4.01810       -0.15150       -0.06850
C         -0.14910       -1.11680        0.33570
C         -4.86320        1.13260        0.12510
C         -2.35240        0.64080        1.70590
C         -2.14780       -2.41500        1.10410
C         -4.20690       -0.68200       -1.49790
C          0.45780       -0.03940       -0.56890
C         -4.52100        2.28490       -0.80960
C          1.94670        0.08520       -0.36010
C          2.44600        0.97050        0.59530
C          2.82420       -0.68550       -1.12270
C          3.82260        1.08510        0.78800
C          4.20080       -0.57090       -0.93010
C          4.70000        0.31440        0.02520
H         -2.09830        0.74330       -0.41110
H         -1.81070       -1.66780       -0.86610
H         -4.45570       -0.89160        0.61340
H          0.34270       -2.07570        0.12090
H          0.08540       -0.89790        1.38490
H         -5.91880        0.87550       -0.03640
H         -4.81180        1.47610        1.16350
H         -2.71610        1.67270        1.72440
H         -1.30610        0.68950        2.01880
H         -2.90720        0.07210        2.45890
H         -3.19590       -2.67460        0.93310
H         -1.56390       -3.32790        0.94070
H         -2.02890       -2.13230        2.15470
H         -3.63080       -0.09940       -2.22400
H         -5.26140       -0.65180       -1.79310
H         -3.88990       -1.72640       -1.57540
H          0.24820       -0.26730       -1.62150
H          0.00930        0.94060       -0.37390
H         -3.48510        2.61090       -0.68150
H         -4.67420        2.01560       -1.85850
H         -5.16710        3.14220       -0.59330
H          1.77230        1.57450        1.19740
H          2.44680       -1.38000       -1.86870
H          4.20550        1.77590        1.53420
H          4.87390       -1.17730       -1.53030
H          6.49850       -0.17890       -0.39710
