44
22833375
O         -3.85970       -0.22420       -0.36750
O         -6.49540       -1.15150       -0.17010
C          2.44160        0.85260        0.46920
C          2.84170       -0.42200       -0.30950
C          1.45750        1.71910       -0.35450
C          3.64680        1.70190        0.93350
C          3.82530       -1.32310        0.44440
C          0.03890        1.20050       -0.35850
C          4.19930       -2.55110       -0.38760
C          4.47120        2.32520       -0.18450
C         -0.37340        0.30260       -1.34310
C         -0.85910        1.61970        0.62320
C          5.14540       -3.46950        0.36920
C         -1.68350       -0.17610       -1.34620
C         -2.16930        1.14130        0.62010
C         -2.58150        0.24330       -0.36460
C         -4.51420       -0.33290        0.89570
C         -5.53160       -1.45570        0.83080
H          1.93010        0.52520        1.38560
H          1.94520       -1.01310       -0.52650
H          3.27400       -0.14340       -1.27830
H          1.80890        1.82380       -1.38940
H          1.43510        2.74110        0.04750
H          4.30230        1.11480        1.58500
H          3.27010        2.51620        1.56660
H          4.74690       -0.77940        0.67490
H          3.38050       -1.63630        1.39630
H          3.29460       -3.11020       -0.65350
H          4.67370       -2.23630       -1.32430
H          3.87290        3.00330       -0.79960
H          5.29560        2.90690        0.24110
H          4.90600        1.55960       -0.83350
H          0.31310       -0.02700       -2.11830
H         -0.55040        2.32160        1.39340
H          4.68650       -3.82800        1.29610
H          6.07540       -2.95110        0.62390
H          5.39890       -4.34040       -0.24330
H         -1.99940       -0.87440       -2.11650
H         -2.84340        1.51340        1.38570
H         -5.02010        0.61660        1.10470
H         -3.80990       -0.56970        1.70270
H         -6.04400       -1.57220        1.79030
H         -5.04940       -2.39900        0.55560
H         -7.13050       -1.88760       -0.18710
