52
111737
N          6.17180       -0.36880        0.18870
C         -2.65990        0.27570       -0.24420
C         -1.38900       -0.49400        0.12250
C         -3.91480       -0.53860        0.07480
C         -0.13580        0.33520       -0.16730
C         -5.18690        0.24400       -0.26050
C          1.16940       -0.41490        0.11390
C         -6.44070       -0.58830        0.02450
C          2.42300        0.42280       -0.15200
C         -7.75410        0.15980       -0.26990
C          3.69470       -0.36930        0.17150
C          4.97850        0.39990       -0.14450
C         -8.94640       -0.76590       -0.01560
C         -7.90220        1.43240        0.56520
C          7.37870        0.38060       -0.13090
C          8.61890       -0.44010        0.21440
C          9.89480        0.32960       -0.09030
H         -2.64470        0.52570       -1.31200
H         -2.68670        1.22230        0.30930
H         -1.41010       -0.76320        1.18540
H         -1.35000       -1.42990       -0.44790
H         -3.91980       -0.80720        1.13820
H         -3.89730       -1.47540       -0.49540
H         -0.14390        0.64940       -1.21850
H         -0.16180        1.25070        0.43660
H         -5.17590        0.53870       -1.31660
H         -5.19340        1.16260        0.33550
H          1.20140       -1.32120       -0.50360
H          1.17150       -0.74480        1.16020
H         -6.43080       -0.90750        1.07480
H         -6.40520       -1.50270       -0.58150
H          2.43880        0.73250       -1.20380
H          2.39470        1.33530        0.45510
H         -7.76660        0.44240       -1.33020
H          3.68450       -0.64270        1.23450
H          3.68960       -1.30830       -0.39690
H          4.97280        1.34380        0.41460
H          4.98340        0.64850       -1.21290
H         -9.88820       -0.26530       -0.26440
H         -8.87680       -1.66830       -0.63220
H         -8.99350       -1.07480        1.03420
H         -8.88780        1.88510        0.41060
H         -7.15910        2.18470        0.28510
H         -7.79270        1.22150        1.63430
H          6.16280       -0.60640        1.18010
H          7.39930        1.32320        0.42980
H          7.39780        0.62550       -1.19980
H          8.62040       -1.37740       -0.35510
H          8.61100       -0.70720        1.27820
H          9.95420        0.58580       -1.15300
H          9.94240        1.25640        0.49020
H         10.77140       -0.27480        0.16280
