44
5745816
O          0.52620        1.36650        2.23770
O         -2.21530        0.95270       -1.71470
O         -4.36690       -0.12060       -0.53870
N          2.39700       -1.83900       -0.34570
C          0.56520        0.47010       -0.78450
C          1.73960        0.51580        0.23510
C          1.98930       -0.91860        0.74760
C          1.00550       -0.46450       -1.95010
C          0.37220        1.90340       -1.35520
C          1.59290        1.60440        1.33020
C         -0.69640       -0.13980       -0.14880
C          0.75510       -1.50380        1.46460
C          1.46270       -1.85360       -1.47970
C          0.17600        2.96310       -0.27190
C          1.35310        2.97860        0.70100
C         -0.58240       -1.08070        0.90060
C         -1.98410        0.16110       -0.62880
C          3.77300       -1.61340       -0.78620
C         -1.73770       -1.65020        1.46370
C         -3.12350       -0.41520       -0.06270
C         -3.00140       -1.31640        0.98670
H          2.63830        0.82790       -0.31770
H          2.80170       -0.90460        1.48660
H          1.83560        0.00090       -2.49870
H          0.19090       -0.58530       -2.67600
H         -0.38810        1.99000       -2.13060
H          1.29580        2.17620       -1.88940
H          2.51520        1.63350        1.92240
H          0.78620       -1.18550        2.51520
H          0.81340       -2.60060        1.48260
H          0.58600       -2.45140       -1.20340
H          1.89820       -2.39680       -2.32850
H         -0.76120        2.79070        0.26860
H          0.08990        3.94920       -0.74320
H          2.25740        3.29740        0.16810
H          1.15610        3.72540        1.47930
H          4.08830       -2.41390       -1.46520
H          4.46330       -1.64480        0.06410
H          3.91020       -0.66050       -1.30640
H          0.55330        2.06000        2.91860
H         -1.65220       -2.36510        2.27880
H         -3.88260       -1.77050        1.43080
H         -2.99930        0.63310       -2.19180
H         -4.34450        0.74710       -0.97570
